l-CHEMBL31738.mol2-000.sdf
     RDKit          3D

  4  3  0  0  0  0  0  0  0  0999 V2000
    1.8824   -7.0154    7.7315 C   0  0  0  0  0  0  0  0  0  0  0  0
    2.5752   -7.7076    8.9070 C   0  0  0  0  0  0  0  0  0  0  0  0
    2.3803   -5.6821    7.6031 O   0  0  0  0  0  0  0  0  0  0  0  0
    2.2124   -7.0284   10.1580 N   0  0  0  0  0  0  0  0  0  0  0  0
  1  2  1  0
  1  3  1  0
  2  4  1  0
M  END

> <MAX-NUMBER-Of-CONTACTS ATOMTYPES> 
0 C.3
0 C.3
1 O.3
2 N.3

$$$$
