l-CHEMBL427852.mol2-001.sdf
     RDKit          3D

  4  3  0  0  0  0  0  0  0  0999 V2000
   -1.7108   -2.1779    0.4937 O   0  0  0  0  0  0  0  0  0  0  0  0
   -1.0680   -1.9928   -0.7690 C   0  0  0  0  0  0  0  0  0  0  0  0
    0.3644   -2.5254   -0.6951 C   0  0  0  0  0  0  0  0  0  0  0  0
    0.3361   -3.9761   -0.4928 N   0  0  0  0  0  0  0  0  0  0  0  0
  1  2  1  0
  2  3  1  0
  3  4  1  0
M  END

> <MAX-NUMBER-Of-CONTACTS ATOMTYPES> 
0 O.3
0 C.3
0 C.3
1 N.pl3

$$$$
