l-CHEMBL447220.mol2-004.sdf
     RDKit          3D

  3  2  0  0  0  0  0  0  0  0999 V2000
    1.5632    0.0020  -10.4516 C   0  0  0  0  0  0  0  0  0  0  0  0
    1.4052   -0.0870   -8.9938 N   0  0  0  0  0  0  0  0  0  0  0  0
    3.0140   -0.1883  -10.8122 C   0  0  0  0  0  0  0  0  0  0  0  0
  1  2  1  0
  1  3  1  0
M  END

> <MAX-NUMBER-Of-CONTACTS ATOMTYPES> 
0 C.3
1 N.3
2 C.ar

$$$$
