l-CHEMBL10085.mol2-002.sdf
     RDKit          3D

  3  2  0  0  0  0  0  0  0  0999 V2000
    1.8001   -2.1988   -7.0681 C   0  0  0  0  0  0  0  0  0  0  0  0
    1.3718   -2.0880   -5.6673 N   0  0  0  0  0  0  0  0  0  0  0  0
    1.1831   -3.4268   -7.6864 C   0  0  0  0  0  0  0  0  0  0  0  0
  1  2  1  0
  1  3  1  0
M  END

> <MAX-NUMBER-Of-CONTACTS ATOMTYPES> 
0 C.3
2 N.3
2 C.ar

$$$$
