l-CHEMBL562208.mol2-001.sdf
     RDKit          3D

  3  2  0  0  0  0  0  0  0  0999 V2000
    3.9931   -4.0208   -5.3110 C   0  0  0  0  0  0  0  0  0  0  0  0
    3.9072   -3.5432   -3.9287 N   0  0  0  0  0  0  0  0  0  0  0  0
    5.4630   -4.1735   -5.7075 C   0  0  2  0  0  0  0  0  0  0  0  0
  1  2  1  0
  1  3  1  0
M  END

> <MAX-NUMBER-Of-CONTACTS ATOMTYPES> 
0 C.3
1 N.pl3
2 C.3

$$$$
