l-CHEMBL560416.mol2-001.sdf
     RDKit          3D

  3  2  0  0  0  0  0  0  0  0999 V2000
   -4.1501   -8.3150   -1.3436 C   0  0  0  0  0  0  0  0  0  0  0  0
   -4.6262   -8.4866    0.0354 N   0  0  0  0  0  0  0  0  0  0  0  0
   -2.8642   -7.5292   -1.3370 C   0  0  0  0  0  0  0  0  0  0  0  0
  1  2  1  0
  1  3  1  0
M  END

> <MAX-NUMBER-Of-CONTACTS ATOMTYPES> 
0 C.3
2 N.3
2 C.ar

$$$$
