l-CHEMBL495299.mol2-003.sdf
     RDKit          3D

  3  2  0  0  0  0  0  0  0  0999 V2000
   -4.7986    1.6729    0.0387 C   0  0  0  0  0  0  0  0  0  0  0  0
   -4.5666    2.1646   -1.3259 N   0  0  0  0  0  0  0  0  0  0  0  0
   -4.7996    0.1659    0.0363 C   0  0  0  0  0  0  0  0  0  0  0  0
  1  2  1  0
  1  3  1  0
M  END

> <MAX-NUMBER-Of-CONTACTS ATOMTYPES> 
0 C.3
2 N.3
2 C.ar

$$$$
