l-CHEMBL514153.mol2-001.sdf
     RDKit          3D

  3  2  0  0  0  0  0  0  0  0999 V2000
    5.7095   -3.5204    8.3183 C   0  0  0  0  0  0  0  0  0  0  0  0
    5.0611   -4.2801    7.2465 N   0  0  0  0  0  0  0  0  0  0  0  0
    6.4370   -4.4683    9.2367 C   0  0  0  0  0  0  0  0  0  0  0  0
  1  2  1  0
  1  3  1  0
M  END

> <MAX-NUMBER-Of-CONTACTS ATOMTYPES> 
0 C.3
1 N.pl3
2 C.ar

$$$$
