l-CHEMBL317520.mol2-001.sdf
     RDKit          3D

  3  2  0  0  0  0  0  0  0  0999 V2000
    9.2181    1.8332   -0.1480 C   0  0  0  0  0  0  0  0  0  0  0  0
    8.4775    1.0769   -1.1666 N   0  0  0  0  0  0  0  0  0  0  0  0
   10.4814    2.3881   -0.7541 C   0  0  0  0  0  0  0  0  0  0  0  0
  1  2  1  0
  1  3  1  0
M  END

> <MAX-NUMBER-Of-CONTACTS ATOMTYPES> 
0 C.3
1 N.3
2 C.ar

$$$$
