l-CHEMBL207393.mol2-002.sdf
     RDKit          3D

  3  2  0  0  0  0  0  0  0  0999 V2000
    3.6705    2.2000   -0.0216 C   0  0  0  0  0  0  0  0  0  0  0  0
    4.1016    2.4461    1.3567 N   0  0  0  0  0  0  0  0  0  0  0  0
    2.3817    1.4190   -0.0130 C   0  0  0  0  0  0  0  0  0  0  0  0
  1  2  1  0
  1  3  1  0
M  END

> <MAX-NUMBER-Of-CONTACTS ATOMTYPES> 
0 C.3
1 N.am
2 C.ar

$$$$
