l-CHEMBL391781.mol2-001.sdf
     RDKit          3D

  3  2  0  0  0  0  0  0  0  0999 V2000
    4.8468    0.2123   -0.9214 C   0  0  0  0  0  0  0  0  0  0  0  0
    3.6641   -0.5874   -0.5930 N   0  0  0  0  0  0  0  0  0  0  0  0
    6.0347   -0.6976   -1.1004 C   0  0  0  0  0  0  0  0  0  0  0  0
  1  2  1  0
  1  3  1  0
M  END

> <MAX-NUMBER-Of-CONTACTS ATOMTYPES> 
0 C.3
1 N.pl3
2 C.ar

$$$$
