l-CHEMBL207674.mol2-002.sdf
     RDKit          3D

  3  2  0  0  0  0  0  0  0  0999 V2000
   -0.4207   -3.2288    1.2043 C   0  0  0  0  0  0  0  0  0  0  0  0
   -1.7610   -3.1554    0.6076 N   0  0  0  0  0  0  0  0  0  0  0  0
    0.4982   -2.2675    0.4952 C   0  0  0  0  0  0  0  0  0  0  0  0
  1  2  1  0
  1  3  1  0
M  END

> <MAX-NUMBER-Of-CONTACTS ATOMTYPES> 
0 C.3
2 N.3
2 C.ar

$$$$
