l-CHEMBL289604.mol2-000.sdf
     RDKit          3D

  3  2  0  0  0  0  0  0  0  0999 V2000
    7.6742   -4.3658    2.1799 C   0  0  0  0  0  0  0  0  0  0  0  0
    8.0968   -3.1452    1.4886 N   0  0  0  0  0  0  0  0  0  0  0  0
    8.7662   -5.4001    2.0857 C   0  0  0  0  0  0  0  0  0  0  0  0
  1  2  1  0
  1  3  1  0
M  END

> <MAX-NUMBER-Of-CONTACTS ATOMTYPES> 
0 C.3
2 N.pl3
2 C.ar

$$$$
