l-CHEMBL1087742.mol2-000.sdf
     RDKit          3D

  4  3  0  0  0  0  0  0  0  0999 V2000
    1.5598   -2.6615    9.5291 C   0  0  0  0  0  0  0  0  0  0  0  0
    3.7229   -2.1750    8.7204 O   0  0  0  0  0  0  0  0  0  0  0  0
    2.0676   -1.4384    7.4399 N   0  0  0  0  0  0  0  0  0  0  0  0
    2.5285   -2.0747    8.5350 C   0  0  0  0  0  0  0  0  0  0  0  0
  1  4  1  0
  2  4  2  0
  3  4  1  0
M  END

> <MAX-NUMBER-Of-CONTACTS ATOMTYPES> 
0 C.3
0 O.2
1 N.am
0 C.2

$$$$
