l-CHEMBL19687.mol2-006.sdf
     RDKit          3D

  4  3  0  0  0  0  0  0  0  0999 V2000
    0.3138   -0.4879    7.7368 O   0  0  0  0  0  0  0  0  0  0  0  0
    0.1482    1.5833    8.5252 N   0  0  0  0  0  0  0  0  0  0  0  0
    0.2782    0.7074    7.5092 C   0  0  0  0  0  0  0  0  0  0  0  0
    0.3769    1.1944    6.1294 C   0  0  0  0  0  0  0  0  0  0  0  0
  1  3  2  0
  2  3  1  0
  3  4  1  0
M  END

> <MAX-NUMBER-Of-CONTACTS ATOMTYPES> 
0 O.2
1 N.am
0 C.2
2 C.ar

$$$$
