l-CHEMBL56977.mol2-001.sdf
     RDKit          3D

  4  3  0  0  0  0  0  0  0  0999 V2000
    1.2220   -6.9411    0.8390 O   0  0  0  0  0  0  0  0  0  0  0  0
    3.3983   -6.5124    0.7275 N   0  0  0  0  0  0  0  0  0  0  0  0
    2.1139   -6.1154    0.8244 C   0  0  0  0  0  0  0  0  0  0  0  0
    1.7899   -4.6756    0.9127 C   0  0  0  0  0  0  0  0  0  0  0  0
  1  3  2  0
  2  3  1  0
  3  4  1  0
M  END

> <MAX-NUMBER-Of-CONTACTS ATOMTYPES> 
0 O.2
1 N.am
0 C.2
2 C.ar

$$$$
