l-CHEMBL391781.mol2-000.sdf
     RDKit          3D

  4  3  0  0  0  0  0  0  0  0999 V2000
    2.4344   -2.7580   -0.2919 O   0  0  0  0  0  0  0  0  0  0  0  0
    0.2247   -2.9355   -0.1483 N   0  0  0  0  0  0  0  0  0  0  0  0
    1.3547   -2.2037   -0.2137 C   0  0  0  0  0  0  0  0  0  0  0  0
    1.2818   -0.7317   -0.1903 C   0  0  0  0  0  0  0  0  0  0  0  0
  1  3  2  0
  2  3  1  0
  3  4  1  0
M  END

> <MAX-NUMBER-Of-CONTACTS ATOMTYPES> 
0 O.2
1 N.am
0 C.2
2 C.ar

$$$$
