l-CHEMBL455946.mol2-002.sdf
     RDKit          3D

  4  3  0  0  0  0  0  0  0  0999 V2000
   -0.4341   -3.1314    0.0003 O   0  0  0  0  0  0  0  0  0  0  0  0
    1.3149   -4.5005   -0.0359 N   0  0  0  0  0  0  0  0  0  0  0  0
    0.7745   -3.2659   -0.0215 C   0  0  0  0  0  0  0  0  0  0  0  0
    1.6479   -2.0791   -0.0320 C   0  0  0  0  0  0  0  0  0  0  0  0
  1  3  2  0
  2  3  1  0
  3  4  1  0
M  END

> <MAX-NUMBER-Of-CONTACTS ATOMTYPES> 
0 O.2
1 N.am
0 C.2
2 C.ar

$$$$
