l-CHEMBL425143.mol2-000.sdf
     RDKit          3D

  4  3  0  0  0  0  0  0  0  0999 V2000
   10.9036    6.7898    3.7707 O   0  0  0  0  0  0  0  0  0  0  0  0
   10.0786    6.0755    1.8363 N   0  0  0  0  0  0  0  0  0  0  0  0
   11.0725    6.1638    2.7424 C   0  0  0  0  0  0  0  0  0  0  0  0
   12.3675    5.4997    2.4858 C   0  0  0  0  0  0  0  0  0  0  0  0
  1  3  2  0
  2  3  1  0
  3  4  1  0
M  END

> <MAX-NUMBER-Of-CONTACTS ATOMTYPES> 
0 O.2
1 N.am
0 C.2
2 C.ar

$$$$
