l-CHEMBL434973.mol2-004.sdf
     RDKit          3D

  4  3  0  0  0  0  0  0  0  0999 V2000
   -2.3094   -0.8975    5.8777 O   0  0  0  0  0  0  0  0  0  0  0  0
   -4.3614   -1.6636    5.5047 N   0  0  0  0  0  0  0  0  0  0  0  0
   -3.1663   -1.2136    5.0738 C   0  0  0  0  0  0  0  0  0  0  0  0
   -2.8983   -1.1049    3.6338 C   0  0  0  0  0  0  0  0  0  0  0  0
  1  3  2  0
  2  3  1  0
  3  4  1  0
M  END

> <MAX-NUMBER-Of-CONTACTS ATOMTYPES> 
0 O.2
1 N.am
0 C.2
2 C.ar

$$$$
