l-CHEMBL264147.mol2-001.sdf
     RDKit          3D

  4  3  0  0  0  0  0  0  0  0999 V2000
    4.5214   -0.3551   -0.0947 O   0  0  0  0  0  0  0  0  0  0  0  0
    3.6821    1.6995   -0.1907 N   0  0  0  0  0  0  0  0  0  0  0  0
    4.7219    0.8438   -0.1343 C   0  0  0  0  0  0  0  0  0  0  0  0
    6.1029    1.3615   -0.1205 C   0  0  0  0  0  0  0  0  0  0  0  0
  1  3  2  0
  2  3  1  0
  3  4  1  0
M  END

> <MAX-NUMBER-Of-CONTACTS ATOMTYPES> 
0 O.2
1 N.am
0 C.2
2 C.ar

$$$$
