@<TRIPOS>MOLECULE
*****
 42 45 0 0 0
SMALL
GASTEIGER

@<TRIPOS>ATOM
      1 C          -3.8718   -1.6564    0.0000 C.3     1  UNL1        0.1696
      2 C          -3.8718   -2.4846    0.0000 C.3     1  UNL1        0.2122
      3 C          -3.1264   -2.8987    0.0000 C.3     1  UNL1        0.2070
      4 C          -2.4225   -2.4846    0.0000 C.3     1  UNL1        0.1807
      5 C          -2.4225   -1.6564    0.0000 C.3     1  UNL1        0.2561
      6 O          -3.1264   -1.2423    0.0000 O.3     1  UNL1       -0.3276
      7 O          -1.7184   -1.2423    0.0000 O.3     1  UNL1       -0.3265
      8 C          -0.3933   -0.5797    0.0000 C.3     1  UNL1        0.2373
      9 C          -0.1449    0.2070    0.0000 C.3     1  UNL1        0.2694
     10 O          -0.8075    0.6626    0.0000 O.3     1  UNL1       -0.3257
     11 C          -1.4700    0.2070    0.0000 C.3     1  UNL1        0.1804
     12 C          -1.2215   -0.5797    0.0000 C.3     1  UNL1        0.1827
     13 O           0.8075    0.4555    0.0000 O.3     1  UNL1       -0.3258
     14 O           1.0560   -1.1594    0.0000 O.3     1  UNL1       -0.2189
     15 C           1.7600   -0.7453    0.0000 C.3     1  UNL1        0.1989
     16 C           2.4638   -1.1594    0.0000 C.3     1  UNL1        0.1261
     17 C           3.1679   -0.7453    0.0000 C.3     1  UNL1        0.0433
     18 C           3.1679    0.0414    0.0000 C.3     1  UNL1        0.1230
     19 C           2.4638    0.4555    0.0000 C.3     1  UNL1        0.1649
     20 C           1.7600    0.0414    0.0000 C.3     1  UNL1        0.1779
     21 N           2.4638   -1.9877    0.0000 N.3     1  UNL1       -0.1301
     22 N           3.8718    0.4555    0.0000 N.3     1  UNL1       -0.1302
     23 O           2.4638    1.2837    0.0000 O.3     1  UNL1       -0.3278
     24 C           3.1679    1.6978    0.0000 C.3     1  UNL1        0.2561
     25 O           3.8718    1.2837    0.0000 O.3     1  UNL1       -0.3276
     26 C           4.5344    1.6978    0.0000 C.3     1  UNL1        0.1696
     27 C           4.5344    2.5261    0.0000 C.3     1  UNL1        0.2122
     28 C           3.8718    2.9401    0.0000 C.3     1  UNL1        0.2070
     29 C           3.1679    2.5261    0.0000 C.3     1  UNL1        0.1807
     30 C           5.2798    1.3251    0.0000 C.3     1  UNL1        0.1415
     31 N           5.2798    0.4969    0.0000 N.3     1  UNL1       -0.1286
     32 N           2.4225    2.9401    0.0000 N.3     1  UNL1       -0.1248
     33 O           3.8718    3.7269    0.0000 O.3     1  UNL1       -0.2186
     34 O           5.2798    2.9815    0.0000 O.3     1  UNL1       -0.2177
     35 C          -2.2568    0.4555    0.0000 C.3     1  UNL1        0.2141
     36 O           0.1035   -1.2423    0.0000 O.3     1  UNL1       -0.2150
     37 O          -2.8780   -0.1242    0.0000 O.3     1  UNL1       -0.2176
     38 C          -4.5344   -1.2423    0.0000 C.3     1  UNL1        0.1415
     39 O          -4.5344   -2.8987    0.0000 O.3     1  UNL1       -0.2177
     40 N          -1.7184   -2.8987    0.0000 N.3     1  UNL1       -0.1248
     41 O          -3.1264   -3.7269    0.0000 O.3     1  UNL1       -0.2186
     42 N          -5.2798   -1.6564    0.0000 N.3     1  UNL1       -0.1286
@<TRIPOS>BOND
     1    25    26    1
     2    26    27    1
     3    27    28    1
     4    28    29    1
     5    29    24    1
     6    26    30    1
     7    15    14    1
     8    30    31    1
     9     5     7    1
    10    29    32    1
    11    28    33    1
    12     1     2    1
    13    27    34    1
    14     2     3    1
    15    11    35    1
    16    12     7    1
    17     3     4    1
    18     8    36    1
    19    15    16    1
    20    35    37    1
    21    16    17    1
    22     1    38    1
    23    17    18    1
    24     2    39    1
    25    18    19    1
    26     4    40    1
    27    19    20    1
    28     3    41    1
    29    20    15    1
    30     4     5    1
    31    16    21    1
    32     8     9    1
    33    18    22    1
    34     9    10    1
    35    19    23    1
    36    20    13    1
    37    10    11    1
    38    24    23    1
    39    11    12    1
    40    12     8    1
    41     5     6    1
    42     9    13    1
    43     6     1    1
    44    24    25    1
    45    38    42    1
