@<TRIPOS>MOLECULE
1421
 42 45 0 0 0
SMALL
GASTEIGER

@<TRIPOS>ATOM
      1 O           6.6349   -0.3607    0.0000 O.3     1  UNL1       -0.3258
      2 O           5.2059   -1.1857    0.0000 O.3     1  UNL1       -0.3278
      3 O           8.1030   -0.2837    0.0000 O.3     1  UNL1       -0.3257
      4 O           8.5781    1.7975    0.0000 O.3     1  UNL1       -0.3265
      5 O           8.0638   -1.1857    0.0000 O.3     1  UNL1       -0.2189
      6 O           3.9683   -1.9003    0.0000 O.3     1  UNL1       -0.3264
      7 O           9.8836    1.2163    0.0000 O.3     1  UNL1       -0.3276
      8 O           6.8225    1.4244    0.0000 O.3     1  UNL1       -0.2150
      9 O           2.7309    0.2433    0.0000 O.3     1  UNL1       -0.2186
     10 O           1.9058   -1.1857    0.0000 O.3     1  UNL1       -0.2176
     11 O          10.8902    3.4774    0.0000 O.3     1  UNL1       -0.2186
     12 O           9.8111   -0.5106    0.0000 O.3     1  UNL1       -0.2176
     13 O          11.8601    2.1425    0.0000 O.3     1  UNL1       -0.2177
     14 O           3.1434   -3.3292    0.0000 O.3     1  UNL1       -0.2176
     15 N           5.5078   -3.1377    0.0000 N.3     1  UNL1       -0.1302
     16 N           8.0638   -2.8358    0.0000 N.3     1  UNL1       -0.1301
     17 N           4.3808    0.2432    0.0000 N.3     1  UNL1       -0.1248
     18 N           9.2493    3.3049    0.0000 N.3     1  UNL1       -0.1248
     19 N          12.0095    0.7213    0.0000 N.3     1  UNL1       -0.1286
     20 C           6.6349   -1.1857    0.0000 C.3     1  UNL1        0.1779
     21 C           5.9203   -1.5982    0.0000 C.3     1  UNL1        0.1649
     22 C           5.9203   -2.4232    0.0000 C.3     1  UNL1        0.1230
     23 C           7.3493   -1.5982    0.0000 C.3     1  UNL1        0.1989
     24 C           7.3493   -2.4232    0.0000 C.3     1  UNL1        0.1261
     25 C           6.6349   -2.8358    0.0000 C.3     1  UNL1        0.0433
     26 C           7.3493    0.0518    0.0000 C.3     1  UNL1        0.2694
     27 C           8.2426    1.0438    0.0000 C.3     1  UNL1        0.1827
     28 C           7.4356    0.8723    0.0000 C.3     1  UNL1        0.2373
     29 C           8.6551    0.3293    0.0000 C.3     1  UNL1        0.1804
     30 C           4.3808   -1.1857    0.0000 C.3     1  UNL1        0.2561
     31 C           3.9684   -0.4712    0.0000 C.3     1  UNL1        0.1807
     32 C           3.1433   -0.4712    0.0000 C.3     1  UNL1        0.2070
     33 C           9.3986    1.8838    0.0000 C.3     1  UNL1        0.2561
     34 C           2.7308   -1.1857    0.0000 C.3     1  UNL1        0.2133
     35 C           9.7341    2.6375    0.0000 C.3     1  UNL1        0.1807
     36 C           3.1433   -1.9002    0.0000 C.3     1  UNL1        0.1834
     37 C          10.5547    2.7237    0.0000 C.3     1  UNL1        0.2070
     38 C           9.4756    0.2431    0.0000 C.3     1  UNL1        0.2141
     39 C          11.0397    2.0563    0.0000 C.3     1  UNL1        0.2122
     40 C          10.7040    1.3025    0.0000 C.3     1  UNL1        0.1696
     41 C           2.7308   -2.6147    0.0000 C.3     1  UNL1        0.2142
     42 C          11.1890    0.6351    0.0000 C.3     1  UNL1        0.1415
@<TRIPOS>BOND
     1    20     1    1
     2    26     1    1
     3    21     2    1
     4    30     2    1
     5     3    26    1
     6     3    29    1
     7    27     4    1
     8    33     4    1
     9    23     5    1
    10     6    30    1
    11     6    36    1
    12     7    33    1
    13     7    40    1
    14    28     8    1
    15    32     9    1
    16    34    10    1
    17    37    11    1
    18    12    38    1
    19    39    13    1
    20    14    41    1
    21    22    15    1
    22    24    16    1
    23    31    17    1
    24    35    18    1
    25    19    42    1
    26    20    21    1
    27    20    23    1
    28    21    22    1
    29    22    25    1
    30    23    24    1
    31    24    25    1
    32    26    28    1
    33    27    28    1
    34    27    29    1
    35    29    38    1
    36    30    31    1
    37    31    32    1
    38    32    34    1
    39    33    35    1
    40    34    36    1
    41    35    37    1
    42    36    41    1
    43    37    39    1
    44    39    40    1
    45    40    42    1
